Circuit: * D:\Users\Javi\GitHub\DC_load\LTspice_DC_load\DC_load.asc

Instance "m:u3:os": Width narrower than recommended for a level 3 MOSFET.
Direct Newton iteration failed to find .op point.  (Use ".option noopiter" to skip.)
Starting Gmin stepping
Gmin = 10
Gmin = 1.07374
Gmin = 0.115292
Gmin = 0.0123794
vernier = 0.5
vernier = 0.25
Gmin = 0.00324519
vernier = 0.125
vernier = 0.0625
vernier = 0.03125
Gmin = 0.00305058
vernier = 0.015625
vernier = 0.0078125
vernier = 0.0104167
Gmin = 0.00302484
vernier = 0.0138889
Gmin = 0.00293446
vernier = 0.0185185
vernier = 0.0246913
Gmin = 0.00279235
vernier = 0.0329218
vernier = 0.0438957
Gmin = 0.00258139
vernier = 0.0585276
Gmin = 0.00227306
vernier = 0.0780367
vernier = 0.104049
Gmin = 0.00184713
vernier = 0.138732
vernier = 0.184976
Gmin = 0.00133218
vernier = 0.246634
vernier = 0.123317
vernier = 0.0616586
Gmin = 0.00100095
vernier = 0.0308293
vernier = 0.0154146
vernier = 0.00770732
vernier = 0.00385366
vernier = 0.00192683
Gmin = 0.00100095
vernier = 0.000963415
vernier = 0.000481708
Gmin = 0
Gmin stepping failed

Starting source stepping with srcstepmethod=0
Source Step = 3.0303%
vernier = 0.25
Source Step = 0.0177557%
Starting source stepping with srcstepmethod=1
Source Step = 3.0303%
vernier = 0.25
Source stepping failed

Pseudo transient terminated at 101.914 s, solution accepted ready or not!
Heightened Def Con from 0.102 to 0.102
Heightened Def Con from 0.102 to 0.102

Date: Sun Jun 06 18:18:24 2021
Total elapsed time: 2.363 seconds.

tnom = 27
temp = 27
method = modified trap
totiter = 36387
traniter = 14633
tranpoints = 4794
accept = 3715
rejected = 1418
matrix size = 182
fillins = 321
solver = Normal
Thread vector: 24.6/8.1[4] 3.8/1.9[4] 3.2/1.3[4] 0.7/1.8[1]  2592/500
Matrix Compiler1: 28.31 KB object code size  3.8/2.0/[0.9]
Matrix Compiler2: 20.35 KB object code size  5.9/7.1/[1.4]

