Circuit: * D:\Users\Javi\OneDrive - Universidad Politécnica de Madrid\Projects\Documentation\DC Load\DC_load\DC_load - Copy.asc

Direct Newton iteration failed to find .op point.  (Use ".option noopiter" to skip.)
Starting Gmin stepping
Gmin = 10
Gmin = 1.07374
Gmin = 0.115292
Gmin = 0.0123794
Gmin = 0.00132923
vernier = 0.5
vernier = 0.25
vernier = 0.125
vernier = 0.0625
vernier = 0.03125
Gmin = 0.00143183
vernier = 0.015625
vernier = 0.0078125
Gmin = 0.00141241
vernier = 0.0104167
vernier = 0.0138889
Gmin = 0.00137139
vernier = 0.0185185
vernier = 0.0246913
Gmin = 0.00130849
vernier = 0.0329218
Gmin = 0.0012154
vernier = 0.0438957
vernier = 0.0585276
Gmin = 0.00107411
vernier = 0.0780367
vernier = 0.0390184
vernier = 0.0195092
vernier = 0.00975459
Gmin = 0.0010038
vernier = 0.0048773
vernier = 0.00243865
vernier = 0.00121932
vernier = 0.000609662
Gmin = 0.00100014
vernier = 0.000457246
Gmin = 0
Gmin stepping failed

Starting source stepping with srcstepmethod=0
Source Step = 3.0303%
vernier = 0.25
Source Step = 7.57576%
Source Step = 15.1515%
Source Step = 22.7273%
Source Step = 30.303%
Source Step = 37.8788%
vernier = 0.375
Source Step = 48.8636%
Source Step = 60.2273%
Source Step = 71.5909%
Source Step = 82.9545%
Source Step = 88.4233%
Source Step = 88.6053%
Source Step = 88.6497%
Source Step = 88.6941%
Source Step = 88.7385%
Source Step = 88.7828%
Source Step = 88.8272%
Source Step = 88.8716%
Source Step = 88.916%
Source Step = 88.9604%
Source Step = 89.0048%
Source Step = 89.0492%
vernier = 0.00219727
Source Step = 89.1158%
Source Step = 89.1824%
Source Step = 89.2489%
Source Step = 89.3155%
Source Step = 89.3821%
vernier = 0.0032959
Source Step = 89.4786%
Source Step = 89.5785%
Source Step = 89.6784%
Source Step = 89.7783%
Source Step = 89.8782%
vernier = 0.00494385
Source Step = 90.018%
Source Step = 90.1678%
Source Step = 90.2015%
Source Step = 90.239%
Source Step = 90.2764%
Source Step = 90.3139%
Source Step = 90.3513%
Source Step = 90.3888%
Source Step = 90.4262%
Source Step = 90.4637%
Source Step = 90.5011%
Source Step = 90.5386%
Source Step = 90.576%
Source Step = 90.6135%
Source Step = 90.6509%
Source Step = 90.6884%
Source Step = 90.7258%
Source Step = 90.7633%
Source Step = 90.8008%
Source Step = 90.8382%
Source Step = 90.8757%
Source Step = 90.9131%
Source Step = 90.9506%
Source Step = 90.988%
Source Step = 91.0255%
Source Step = 91.0629%
Source Step = 91.1004%
Source Step = 91.1378%
Source Step = 91.1753%
Source Step = 91.2127%
Source Step = 91.2502%
Source Step = 91.2876%
Source Step = 91.3251%
Source Step = 91.3626%
Source Step = 91.4%
Source Step = 91.4375%
Source Step = 91.4749%
Source Step = 91.5124%
Source Step = 91.5498%
Source Step = 91.5873%
Source Step = 91.6247%
Source Step = 91.6622%
Source Step = 91.6996%
Source Step = 91.7371%
Source Step = 91.7745%
Source Step = 91.812%
Source Step = 91.8494%
Source Step = 91.8869%
Source Step = 91.9244%
Source Step = 91.9618%
Source Step = 91.9993%
Source Step = 92.0367%
Source Step = 92.0742%
Source Step = 92.1116%
Source Step = 92.1491%
Source Step = 92.1865%
Source Step = 92.224%
Source Step = 92.2614%
Source Step = 92.2989%
Source Step = 92.3363%
Source Step = 92.3738%
Source Step = 92.4112%
Source Step = 92.4487%
Source Step = 92.4862%
Source Step = 92.5236%
Source Step = 92.5611%
Source Step = 92.5985%
Source Step = 92.636%
Source Step = 92.6734%
Source Step = 92.7109%
Source Step = 92.7483%
Source Step = 92.7858%
Source Step = 92.8232%
Source Step = 92.8607%
Source Step = 92.8981%
Source Step = 92.9356%
Source Step = 92.9731%
Source Step = 93.0105%
Source Step = 93.048%
Source Step = 93.0854%
Source Step = 93.1229%
Source Step = 93.1603%
Source Step = 93.1978%
Source Step = 93.2352%
Source Step = 93.2727%
Source Step = 93.3101%
Source Step = 93.3476%
Source Step = 93.385%
Source Step = 93.4225%
Source Step = 93.4599%
Source Step = 93.4974%
Source Step = 93.5349%
Source Step = 93.5723%
Source Step = 93.6098%
Source Step = 93.6472%
Source Step = 93.6847%
Source Step = 93.7221%
Source Step = 93.7596%
Source Step = 93.797%
Source Step = 93.8345%
Source Step = 93.8719%
Source Step = 93.9094%
Source Step = 93.9468%
Source Step = 93.9843%
Source Step = 94.0217%
vernier = 0.00185394
Source Step = 94.0779%
Source Step = 94.1341%
Source Step = 94.1903%
Source Step = 94.2465%
Source Step = 94.3026%
Source Step = 94.3588%
Source Step = 94.415%
Source Step = 94.4712%
Source Step = 94.5274%
Source Step = 94.5835%
Source Step = 94.6397%
Source Step = 94.6959%
Source Step = 94.7521%
Source Step = 94.8083%
Source Step = 94.8644%
Source Step = 94.9206%
Source Step = 94.9768%
Starting source stepping with srcstepmethod=1
Source Step = 3.0303%
Source Step = 33.3333%
Source Step = 63.6364%
Source Step = 93.9394%
Source Step = 99.003%
Source stepping failed

Pseudo transient terminated at 102.735 s, solution accepted ready or not!
Heightened Def Con from 0.0373412 to 0.0373412
