Circuit: * D:\Users\Javi\OneDrive - Universidad Politécnica de Madrid\Projects\Documentation\DC Load\DC_load\Draft1.asc

Direct Newton iteration for .op point succeeded.

Date: Fri Apr 09 10:21:55 2021
Total elapsed time: 0.026 seconds.

tnom = 27
temp = 27
method = modified trap
totiter = 2099
traniter = 2096
tranpoints = 1049
accept = 1049
rejected = 0
matrix size = 11
fillins = 5
solver = Normal
Matrix Compiler1: 396 bytes object code size  0.1/0.0/[0.0]
Matrix Compiler2: 759 bytes object code size  0.1/0.1/[0.1]

